.MODEL LSK170A NJF (       LEVEL  = 1
+ BETA   = 0.0378643       VTO    = -0.4025156      LAMBDA = 4.783719E-3
+ IS     = 3.55773E-14     N      = 1
+ ACM    = 0               RD     = 10.6565         RS     = 6.8790487
+ CGD    = 3.99E-11        CGS    = 4.06518E-11
+ PB     = 0.981382        MJ     = 0.794653        FC     = 0.5
+ KF     = 0               AF     = 1               )
*
.MODEL LSK170B NJF (       LEVEL  = 1
+ BETA   = 0.0350699       VTO    = -0.5375582      LAMBDA = 4.951E-3
+ IS     = 2.76212E-14     N      = 1
+ ACM    = 0               RD     = 7.82168         RS     = 6.9525888
+ CGD    = 4.36E-11        CGS    = 4.36E-11
+ PB     = 1.2             MJ     = 0.8892205       FC     = 0.5
+ KF     = 0               AF     = 1               )

.MODEL CPH3910N NJF(BETA=0.0256 VTO=-1.23 LAMBDA=0.033
+ RD=7.6 RS=7.6 IS=10.3f CGS=5.6p CGD=5.6p M=0.36 PB=0.6
+ FC=0.5 N=1.111 )

.MODEL DMMT5401 PNP IS=6E-14 NF=1 BF=130 VAF=360 ISE=6E-14
+ NE=1.5 NR=1 BR=6.5 VAR=37 ISC=8E-12 NC=1.35 RC=0.08 RB=1 RE=0.25
+ CJC=13E-12 MJC=0.46  VJC=0.7 CJE=63E-12 MJE=0.41 VJE=0.9
+ TF=6.7E-10 TR=1.03E-6 XTB=1.5 QUASIMOD=1 RCO=14 GAMMA=1.5E-8

.MODEL FJV1845 npn
+ IS     = 1.075431E-13    BF     = 600.7           NF     = 1
+ BR     = 13.565          NR     = 1               ISE    = 1.98107E-13
+ NE     = 2               ISC    = 1.8378E-11      NC     = 1.5
+ VAF    = 82.803          VAR    = 20.6691         IKF    = 0.596
+ IKR    = 0.0190546       RB     = 157             RBM    = 12.092
+ IRB    = 1.258925E-6     RE     = 1.5             RC     = 180.7
+ CJE    = 2.057447E-11    VJE    = 0.7300286       MJE    = 0.3619943
+ FC     = 0.5             CJC    = 4.525739E-12    VJC    = 0.5
+ MJC    = 0.3659045       XTB    = 1.7281          EG     = 1.1809
+ XTI    = 3               TF     = 3.14E-11
